
&files_nml
  climatefile = '/homebv/lipscomb/inputdata/glc/glint_example.LY.config'
  paramfile   = '/homebv/lipscomb/inputdata/glc/ice.config'
/

&grid_nml
  horiz_grid_opt  = 'file'
  horiz_grid_file = '/homebv/lipscomb/inputdata/topo/topodata_48x96_USGS_070110.glc.nc'
  topo_varname    = 'TOPO'
/

&coupled_nml
  coupled_freq_opt = 'nday'
  coupled_freq = 1
/

