
&files_nml
  climatefile = '/homebv/lipscomb/inputdata/glc/glint_example.LY.config'
  paramfile   = '/homebv/lipscomb/inputdata/glc/ice.config'
/

&grid_nml
  horiz_grid_opt  = 'file'
  horiz_grid_file = '/homebv/lipscomb/inputdata/topo/topodata_48x96_USGS_070110.glc.nc'
  topo_varname    = 'TOPO'
/

&coupled_nml
  coupled_freq_opt = 'nday'
  coupled_freq = 1
/

&time_manager_nml
  runid             = 'insert_id_here'
  dt_option         = 'steps_per_day'
  dt_count          = 1
  allow_leapyear    = .false.
  iyear0            = 1
  imonth0           = 1
  iday0             = 1
  ihour0            = 0
  iminute0          = 0
  isecond0          = 0
  date_separator    = '-'
  stop_option       = 'nyear'
  stop_count        =  1
/
