 region_mask_file = '/gpfs/fs1/work/sbradley/CESM2.0_SETUP/POP/region_mask_gx1v7_lgm21ka_huy3s1D.190426.ieeei4'
 horiz_grid_file = '/glade/p/cesmdata/cseg/inputdata/ocn/pop/gx1v7/grid/horiz_grid_20010402.ieeer8'
 topography_file =  '/gpfs/fs1/work/sbradley/CESM2.0_SETUP/POP/kmt_gx1v7_lgm21ka_huy3s1D.190426.ieeei4'
 region_info_file = '/gpfs/fs1/work/sbradley/CESM2.0_SETUP/POP/gx1v7_LGM_region_ids'
 overflows_infile = '/gpfs/fs1/work/sbradley/CESM2.0_SETUP/POP/gx1v7_LGM_overflow'
 overflows_on = .true.
 overflows_interactive = .true. 
 EBM_PARAM_OPTION= "internal" 
